5
Coordinates from ORCA-job CH2O2GO E -189.768102177498
  O       0.534039      0.497825      0.880960
  C      -0.403061     -0.081875      0.106060
  O      -0.231761     -0.460775     -1.024440
  H       1.350839      0.541625      0.346260
  H      -1.345861     -0.154075      0.667260
5
Coordinates from ORCA-job CH2O2GO E -189.768311490607
  O       0.535219      0.496371      0.875804
  C      -0.402711     -0.082292      0.105705
  O      -0.233508     -0.458869     -1.018456
  H       1.348154      0.541797      0.348942
  H      -1.342959     -0.154282      0.664105
5
Coordinates from ORCA-job CH2O2GO E -189.768324985999
  O       0.535737      0.495804      0.873662
  C      -0.403580     -0.080843      0.104298
  O      -0.235724     -0.459759     -1.017391
  H       1.350837      0.543101      0.351782
  H      -1.343076     -0.155577      0.663749
5
Coordinates from ORCA-job CH2O2GO E -189.768299044750
  O       0.536296      0.494888      0.871307
  C      -0.401669     -0.088761      0.106087
  O      -0.239773     -0.458603     -1.017982
  H       1.353849      0.547452      0.354869
  H      -1.344508     -0.152251      0.661820
5
Coordinates from ORCA-job CH2O2GO E -189.768328779929
  O       0.535868      0.495386      0.872667
  C      -0.403189     -0.082724      0.104263
  O      -0.237990     -0.460220     -1.018244
  H       1.352820      0.545050      0.353952
  H      -1.343314     -0.154767      0.663462
5
Coordinates from ORCA-job CH2O2GO E -189.768328839966
  O       0.535776      0.495273      0.872549
  C      -0.403171     -0.082685      0.104103
  O      -0.238365     -0.460481     -1.018530
  H       1.353106      0.545317      0.354398
  H      -1.343152     -0.154700      0.663581
