5
Coordinates from ORCA-job CH2O2ES E -189.351359208030
  O       0.534039      0.497825      0.880960
  C      -0.403061     -0.081875      0.106060
  O      -0.231761     -0.460775     -1.024440
  H       1.350839      0.541625      0.346260
  H      -1.345861     -0.154075      0.667260
5
Coordinates from ORCA-job CH2O2ES E -189.356224205375
  O       0.532126      0.488989      0.858899
  C      -0.402303     -0.076095      0.121281
  O      -0.237585     -0.461846     -1.022922
  H       1.374461      0.552521      0.356223
  H      -1.362504     -0.160843      0.662619
5
Coordinates from ORCA-job CH2O2ES E -189.359764571256
  O       0.530559      0.473764      0.820552
  C      -0.394602     -0.059231      0.154632
  O      -0.256230     -0.466045     -1.017713
  H       1.401101      0.567729      0.375791
  H      -1.376633     -0.173493      0.642838
5
Coordinates from ORCA-job CH2O2ES E -189.360068107025
  O       0.538363      0.478309      0.826589
  C      -0.394262     -0.065800      0.154482
  O      -0.267434     -0.469265     -1.021560
  H       1.406857      0.572779      0.379835
  H      -1.379328     -0.173298      0.636754
5
Coordinates from ORCA-job CH2O2ES E -189.360030007717
  O       0.542326      0.480881      0.829429
  C      -0.397637     -0.047066      0.149119
  O      -0.274304     -0.476134     -1.019855
  H       1.411103      0.569790      0.383647
  H      -1.377293     -0.184746      0.633759
5
Coordinates from ORCA-job CH2O2ES E -189.360176352669
  O       0.542946      0.480983      0.829910
  C      -0.391087     -0.058532      0.156127
  O      -0.278478     -0.473461     -1.019829
  H       1.410177      0.573348      0.382308
  H      -1.379363     -0.179613      0.627585
5
Coordinates from ORCA-job CH2O2ES E -189.360196034538
  O       0.542578      0.481357      0.831339
  C      -0.388700     -0.059114      0.156659
  O      -0.279493     -0.473011     -1.018784
  H       1.408859      0.572886      0.381007
  H      -1.379050     -0.179393      0.625880
5
Coordinates from ORCA-job CH2O2ES E -189.360204130747
  O       0.542703      0.481901      0.832733
  C      -0.386750     -0.058193      0.156385
  O      -0.281790     -0.473494     -1.017928
  H       1.408521      0.572639      0.380871
  H      -1.378489     -0.180128      0.624038
5
Coordinates from ORCA-job CH2O2ES E -189.360204822889
  O       0.542696      0.481906      0.832734
  C      -0.386584     -0.057947      0.155986
  O      -0.282423     -0.473794     -1.017989
  H       1.408765      0.572804      0.381360
  H      -1.378259     -0.180244      0.624009
